/*--------------------------------*- C++ -*----------------------------------*\
| \\      /  F ield         | foam-extend: Open Source CFD                    |
|  \\    /   O peration     | Version:     4.0                                |
|   \\  /    A nd           | Web:         http://www.foam-extend.org         |
|    \\/     M anipulation  |                                                 |
\*---------------------------------------------------------------------------*/
FoamFile
{
    version     2.0;
    format      ascii;
    class       dictionary;
    location    "constant";
    object      transportProperties;
}
// * * * * * * * * * * * * * * * * * * * * * * * * * * * * * * * * * * * * * //

phases          (material gas);

material
{
    transportModel  Newtonian;
    nu              nu [ 0 2 -1 0 0 0 0 ] 0.8e-6;
    rhoS            rhoS [ 1 -3 0 0 0 0 0 ] 7280;
    rhoL            rhoL [ 1 -3 0 0 0 0 0 ] 6965.9;
}

gas
{
    transportModel  Newtonian;
    nu              nu [ 0 2 -1 0 0 0 0 ] 1.5e-5; //gas properties from Wang et al
    rhoG            rhoG [ 1 -3 0 0 0 0 0 ] 1.6337;
}

sigma           sigma [ 1 0 -2 0 0 0 0 ] 1.4;
STgrad		      STgrad [1 0 -2 -1 0 0 0] -4e-4;

// ************************************************************************* //
