/*--------------------------------*- C++ -*----------------------------------*\
  =========                 |
  \\      /  F ield         | OpenFOAM: The Open Source CFD Toolbox
   \\    /   O peration     | Website:  https://openfoam.org
    \\  /    A nd           | Version:  10
     \\/     M anipulation  |
\*---------------------------------------------------------------------------*/
FoamFile
{
    format      ascii;
    class       dictionary;
    location    "constant";
    object      phaseProperties;
}
// * * * * * * * * * * * * * * * * * * * * * * * * * * * * * * * * * * * * * //

phases          (metal gas);

epsilon	0.01;
Mobility	1.0e-9;

sigma           0.0025;//0.07283;



TRef	298.0;
dsigmadT	-9.8e-5;

p0		100000.0;
Tvap 3068.0;
Mm 5.58e-2;
LatentHeatVap 7.45e6;
// ************************************************************************* //
