/*--------------------------------*- C++ -*----------------------------------*\
  =========                 |
  \\      /  F ield         | OpenFOAM: The Open Source CFD Toolbox
   \\    /   O peration     | Website:  https://openfoam.org
    \\  /    A nd           | Version:  10
     \\/     M anipulation  |
\*---------------------------------------------------------------------------*/
FoamFile
{
    format      ascii;
    class       polyBoundaryMesh;
    location    "constant/polyMesh";
    object      boundary;
}
// * * * * * * * * * * * * * * * * * * * * * * * * * * * * * * * * * * * * * //

7
(
    lowerWall
    {
        type            wall;
        inGroups        List<word> 1(wall);
        nFaces          800;
        startFace       46000;
    }
    atmosphere
    {
        type            patch;
        nFaces          0;
        startFace       46800;
    }
    rightWall
    {
        type            patch;
        nFaces          400;
        startFace       46800;
    }
    leftWall
    {
        type            patch;
        nFaces          400;
        startFace       47200;
    }
    frontAndBack
    {
        type            patch;
        nFaces          800;
        startFace       47600;
    }
    procBoundary1to0
    {
        type            processor;
        inGroups        List<word> 1(processor);
        nFaces          800;
        startFace       48400;
        matchTolerance  0.0001;
        myProcNo        1;
        neighbProcNo    0;
    }
    procBoundary1to3
    {
        type            processor;
        inGroups        List<word> 1(processor);
        nFaces          800;
        startFace       49200;
        matchTolerance  0.0001;
        myProcNo        1;
        neighbProcNo    3;
    }
)

// ************************************************************************* //
