/*--------------------------------*- C++ -*----------------------------------*\
  =========                 |
  \\      /  F ield         | OpenFOAM: The Open Source CFD Toolbox
   \\    /   O peration     | Website:  https://openfoam.org
    \\  /    A nd           | Version:  10
     \\/     M anipulation  |
\*---------------------------------------------------------------------------*/
FoamFile
{
    version     2.0;
    format      ascii;
    class       dictionary;
    location    "constant";
    object      PhaseFieldProperties;
}
// * * * * * * * * * * * * * * * * * * * * * * * * * * * * * * * * * * * * * //
V_incident	(0 1 0);  //(0 1 0);  //NORMALISED IN CODE


N_sub_divisions 2; // most optimized is =2

HS_a 	0.000256; // laser beam radius in mm
HS_bg 	0.0;  // location on x-axis which is moving axis
HS_velocity 0.050;  // 0.01667 m/s is 1.0 m/min speeds
HS_lg 	0.0025; // distance in Z-direction
HS_Q 	2000;


//For linear path set oscAmpX=oscAmpz=0
//For sine path set oscAmpz=0
//For circular path set amplitude and frequency in both X and Z
HS_oscAmpX 		0;
HS_oscAmpZ 		0;

HS_oscFreqX 	0;
HS_oscFreqZ 	0;


wavelength			1.064e-6;
e_num_density		5.83e29;
elec_resistivity	2.0e-6;

// Use local search: defaults to yes
useLocalSearch yes;

// Print extra debug information: defaults to no
debug no;

Radius_Flavour	2.0;  // what is it?

// -----------------------//
