/*--------------------------------*- C++ -*----------------------------------*\
  =========                 |
  \\      /  F ield         | OpenFOAM: The Open Source CFD Toolbox
   \\    /   O peration     | Website:  https://openfoam.org
    \\  /    A nd           | Version:  10
     \\/     M anipulation  |
\*---------------------------------------------------------------------------*/
FoamFile
{
    format      ascii;
    class       polyBoundaryMesh;
    location    "constant/polyMesh";
    object      boundary;
}
// * * * * * * * * * * * * * * * * * * * * * * * * * * * * * * * * * * * * * //

7
(
    lowerWall
    {
        type            wall;
        inGroups        List<word> 1(wall);
        nFaces          60;
        startFace       7080;
    }
    atmosphere
    {
        type            patch;
        nFaces          0;
        startFace       7140;
    }
    rightWall
    {
        type            empty;
        inGroups        List<word> 1(empty);
        nFaces          3600;
        startFace       7140;
    }
    leftWall
    {
        type            empty;
        inGroups        List<word> 1(empty);
        nFaces          3600;
        startFace       10740;
    }
    frontAndBack
    {
        type            patch;
        nFaces          60;
        startFace       14340;
    }
    procBoundary3to1
    {
        type            processor;
        inGroups        List<word> 1(processor);
        nFaces          60;
        startFace       14400;
        matchTolerance  0.0001;
        myProcNo        3;
        neighbProcNo    1;
    }
    procBoundary3to2
    {
        type            processor;
        inGroups        List<word> 1(processor);
        nFaces          60;
        startFace       14460;
        matchTolerance  0.0001;
        myProcNo        3;
        neighbProcNo    2;
    }
)

// ************************************************************************* //
