/*--------------------------------*- C++ -*----------------------------------*\
  =========                 |
  \\      /  F ield         | OpenFOAM: The Open Source CFD Toolbox
   \\    /   O peration     | Website:  https://openfoam.org
    \\  /    A nd           | Version:  6
     \\/     M anipulation  |
\*---------------------------------------------------------------------------*/
FoamFile
{
    version     2.0;
    format      ascii;
    class       polyBoundaryMesh;
    location    "constant/polyMesh";
    object      boundary;
}
// * * * * * * * * * * * * * * * * * * * * * * * * * * * * * * * * * * * * * //

5
(
    lowerWall
    {
        type            wall;
        inGroups        1(wall);
        nFaces          320;
        startFace       81472;
    }
    atmosphere
    {
        type            patch;
        nFaces          320;
        startFace       81792;
    }
    rightWall
    {
        type            empty;
        inGroups        1(empty);
        nFaces          40960;
        startFace       82112;
    }
    leftWall
    {
        type            empty;
        inGroups        1(empty);
        nFaces          40960;
        startFace       123072;
    }
    frontAndBack
    {
        type            patch;
        nFaces          256;
        startFace       164032;
    }
)

// ************************************************************************* //
