/*--------------------------------*- C++ -*----------------------------------*\
  =========                 |
  \\      /  F ield         | OpenFOAM: The Open Source CFD Toolbox
   \\    /   O peration     | Website:  https://openfoam.org
    \\  /    A nd           | Version:  6
     \\/     M anipulation  |
\*---------------------------------------------------------------------------*/
FoamFile
{
    version     2.0;
    format      ascii;
    class       dictionary;
    location    "constant";
    object      PhaseFieldProperties;
}
// * * * * * * * * * * * * * * * * * * * * * * * * * * * * * * * * * * * * * //
V_incident	(0 1 0);//(0 1 0);//NORMALISED IN CODE

timeVsLaserPosition
{
    file    "$FOAM_CASE/constant/timeVsLaserPosition";
    outOfBounds clamp;
}

timeVsLaserPower
{
    file    "$FOAM_CASE/constant/timeVsLaserPower";
    outOfBounds clamp;
}

laserRadius 0.002;

N_sub_divisions	1;



wavelength	1.064e-6;
e_num_density	5.83e29;

Radius_Flavour	2.0;

PowderSim true;
