/*--------------------------------*- C++ -*----------------------------------*\
  =========                 |
  \\      /  F ield         | OpenFOAM: The Open Source CFD Toolbox
   \\    /   O peration     | Website:  https://openfoam.org
    \\  /    A nd           | Version:  10
     \\/     M anipulation  |
\*---------------------------------------------------------------------------*/
FoamFile
{
    version     2.0;
    format      ascii;
    class       dictionary;
    location    "system";
    object      controlDict;
}
// * * * * * * * * * * * * * * * * * * * * * * * * * * * * * * * * * * * * * //

application		laserbeamFoam; // or the name of your solver

startFrom       startTime;

startTime       0;

stopAt          endTime;

endTime         0.20;

deltaT          1.0e-8;

writeControl    adjustableRunTime;

writeInterval   0.0002;

purgeWrite      0;

writeFormat     ascii;

writePrecision  6;

writeCompression uncompressed;

timeFormat      general;

timePrecision   6;

runTimeModifiable yes;

adjustTimeStep  yes;

maxCo           0.6; // stable
maxAlphaCo      0.6; // stable

maxDeltaT       5e-4;


// ************************************************************************* //
