/*--------------------------------*- C++ -*----------------------------------*\
  =========                 |
  \\      /  F ield         | OpenFOAM: The Open Source CFD Toolbox
   \\    /   O peration     | Website:  https://openfoam.org
    \\  /    A nd           | Version:  6
     \\/     M anipulation  |
\*---------------------------------------------------------------------------*/
FoamFile
{
    version     2.0;
    format      ascii;
    class       dictionary;
    location    "constant";
    object      PhaseFieldProperties;
}
// * * * * * * * * * * * * * * * * * * * * * * * * * * * * * * * * * * * * * //

N_sources	5;

laser.0{
bg -152e-6;//20
lg 0e-6;
velocity 2.66e-5;
Q 4.09;
wavelength 808e-9;
radius 55e-6;
V_incident (0 1 0);//(0 1 0);//NORMALISED IN CODE
}

laser.1{
bg -7.6e-5;//20
lg 0e-6;
velocity 2.66e-5;
Q 4.09;
wavelength 808e-9;
radius 55e-6;
V_incident (0 1 0);//(0 1 0);//NORMALISED IN CODE
}

laser.2{
bg 7.6e-5;//20
lg 0e-6;
velocity 2.66e-5;
Q 4.09;
wavelength 808e-9;
radius 55e-6;
V_incident (0 1 0);//(0 1 0);//NORMALISED IN CODE
}

laser.3{
bg 152e-6;//20
lg 0e-6;
velocity 2.66e-5;
Q 4.09;
wavelength 808e-9;
radius 55e-6;
V_incident (0 1 0);//(0 1 0);//NORMALISED IN CODE
}

laser.4{
bg 0.0;//20
lg 0e-6;
velocity 2.66e-5;
Q 4.09;
wavelength 808e-9;
radius 55e-6;
V_incident (0 1 0);//(0 1 0);//NORMALISED IN CODE
}

e_num_density	12.475e29;
elec_resistivity	1920e-9;//


debug	false;//true;

PowderSim	false;
