/*--------------------------------*- C++ -*----------------------------------*\
  =========                 |
  \\      /  F ield         | OpenFOAM: The Open Source CFD Toolbox
   \\    /   O peration     | Website:  https://openfoam.org
    \\  /    A nd           | Version:  10
     \\/     M anipulation  |
\*---------------------------------------------------------------------------*/
FoamFile
{
    format      ascii;
    class       dictionary;
    location    "system";
    object      fvSolution;
}
// * * * * * * * * * * * * * * * * * * * * * * * * * * * * * * * * * * * * * //

solvers
{
    "alpha.*"
    {
        nAlphaSubCycles 4;
    }

    "pcorr.*"
    {
    
        solver          PCG;
        preconditioner  DIC;
        tolerance       1e-9;
        relTol          0;
        
    /*
        solver          PCG;
        preconditioner
        {
            preconditioner  GAMG;
            tolerance       1e-09;
            relTol          0;
            smoother        GaussSeidel;
        }
        tolerance       1e-09;
        relTol          0;
        maxIter         100;
        */
    }

    p_rgh
    {
            solver          PCG;
        preconditioner  DIC;
        tolerance       1e-9;
        relTol          0;
    /*
        solver          GAMG;
        tolerance       1e-09;
        relTol          0.0;
        smoother        GaussSeidel;
        */
    }

    p_rghFinal
    {
            $p_rgh;
        relTol          0;
        /*
        solver          PCG;
        preconditioner
        {
            preconditioner  GAMG;
            tolerance       1e-09;
            relTol          0;
            nVcycles        2;
            smoother        GaussSeidel;
        }
        tolerance       1e-09;
        relTol          0;
        maxIter         20;
        */
    }

    U
    {
        solver          smoothSolver;
        smoother        GaussSeidel;
        tolerance       1e-09;
        relTol          0.0;
        nSweeps         1;
    }

    UFinal
    {
        $U;
        tolerance       1e-09;
        relTol          0;
    }
    T
    {
/*
        solver          PBiCG;
        preconditioner  DILU;
        tolerance       1e-12;
        minIter         1;
        maxIter         500;//2
*/
        solver          smoothSolver;
        smoother        symGaussSeidel;
        tolerance       1e-9;
        relTol          0.0;
    }

    TFinal
    {
        $T;
    }
}

MELTING
{
    minTempCorrector 1;
    maxTempCorrector 150;
    epsilonTolerance 1e-6;
    epsilonRelaxation 0.95;
    
}

PIMPLE
{
    nCorrectors     3;
    nNonOrthogonalCorrectors 0;
}

relaxationFactors
{
    equations
    {
   //     ".*"            1;
    }
}

// ************************************************************************* //
