/*--------------------------------*- C++ -*----------------------------------*\
  =========                 |
  \\      /  F ield         | OpenFOAM: The Open Source CFD Toolbox
   \\    /   O peration     | Website:  https://openfoam.org
    \\  /    A nd           | Version:  10
     \\/     M anipulation  |
\*---------------------------------------------------------------------------*/
FoamFile
{
    format      ascii;
    class       dictionary;
    location    "system";
    object      setFieldsDict;
}
// * * * * * * * * * * * * * * * * * * * * * * * * * * * * * * * * * * * * * //

defaultFieldValues
(
    volScalarFieldValue alpha.air 1
    volScalarFieldValue alpha.Ni 0
    volScalarFieldValue alpha.Mn 0
    volScalarFieldValue alpha.Fe 0
    volVectorFieldValue U (0 0 0)
);

regions
(

    boxToCell
    {
        box (-200 5e-3 -500) (0.0 25 500);
        fieldValues
        (
    volScalarFieldValue alpha.Ni 0.2
    volScalarFieldValue alpha.Fe 0.75
    volScalarFieldValue alpha.Ni 0.05
    volScalarFieldValue alpha.air 0.0
        );
    }
    
        boxToCell
    {
        box (0.0 5e-3 -500) (200.0 25 500);
        fieldValues
        (
    volScalarFieldValue alpha.Fe 0.7
    volScalarFieldValue alpha.Ni 0.1
    volScalarFieldValue alpha.Mn 0.2
    volScalarFieldValue alpha.air 0.0
        );
    }
 
);


// ************************************************************************* //
