/*--------------------------------*- C++ -*----------------------------------*\
  =========                 |
  \\      /  F ield         | OpenFOAM: The Open Source CFD Toolbox
   \\    /   O peration     | Website:  https://openfoam.org
    \\  /    A nd           | Version:  10
     \\/     M anipulation  |
\*---------------------------------------------------------------------------*/
FoamFile
{
    format      ascii;
    class       dictionary;
    location    "constant";
    object      phaseProperties;
}
// * * * * * * * * * * * * * * * * * * * * * * * * * * * * * * * * * * * * * //

phases (Ni Mn Fe air);

sigmas
(
    (air Ni) 1.2
    (air Mn) 1.1
    (air Fe) 1.0
    (Ni Mn) 0.0
    (Ni Fe) 0.0
    (Mn Fe) 0.0
);

dsigmadT
(
    (air Ni) -1e-4
    (air Mn) -1e-4
    (air Fe) -1e-4
    (Ni Mn) 0.0
    (Ni Fe) 0.0
    (Mn Fe) 0.0
);

interfaceCompression
(
    (air Ni) 1
    (air Mn) 1
    (air Fe) 1
    (Ni Mn) 0
    (Ni Fe) 0
    (Mn Fe) 0
);

interfaceDiffusion
(
    (air Ni) 0
    (air Mn) 0
    (air Fe) 0
    (Ni Mn) 1e-9
    (Ni Fe) 2e-9
    (Mn Fe) 3e-9
);

p0		100000.0;


// ************************************************************************* //
