/*--------------------------------*- C++ -*----------------------------------*\
  =========                 |
  \\      /  F ield         | OpenFOAM: The Open Source CFD Toolbox
   \\    /   O peration     | Website:  https://openfoam.org
    \\  /    A nd           | Version:  6
     \\/     M anipulation  |
\*---------------------------------------------------------------------------*/
FoamFile
{
    version     2.0;
    format      ascii;
    class       dictionary;
    location    "constant";
    object      PhaseFieldProperties;
}
// * * * * * * * * * * * * * * * * * * * * * * * * * * * * * * * * * * * * * //
//V_incident	(0 1 0);//(0 1 0);//NORMALISED IN CODE

N_sub_divisions	10;

HS_a 70.0e-6;
HS_bg 0.0;//20
HS_velocity 0.0;//6.0;
HS_lg 0.0e-6;
HS_Q 1.0;//

y2	300e-6;
plane_rotation	3.14159265359;//1.57;//0.7535;//3.14159265359;//1.57;

wavelength	1.070e-6;
e_num_density	12.475e29;
elec_resistivity	1920e-9;//


debug	false;//true;

PowderSim	false;
