/*--------------------------------*- C++ -*----------------------------------*\
| =========                 |                                                 |
| \\      /  F ield         | OpenFOAM: The Open Source CFD Toolbox           |
|  \\    /   O peration     | Version:  3.0.1                                 |
|   \\  /    A nd           | Web:      www.OpenFOAM.org                      |
|    \\/     M anipulation  |                                                 |
\*---------------------------------------------------------------------------*/
FoamFile
{
    version     2.0;
    format      ascii;
    class       dictionary;
    location    "system";
    object      setFieldsDict;
}
// * * * * * * * * * * * * * * * * * * * * * * * * * * * * * * * * * * * * * //

defaultFieldValues
(
    volScalarFieldValue alpha.air 1
    volScalarFieldValue alpha.Ni 0
    volScalarFieldValue alpha.Mn 0
    volScalarFieldValue alpha.Fe 0
    volVectorFieldValue U (0 0 0)
);

regions
(



    boxToCell
    {
        box (-0.085 0.001 -0.05) (0.085 0.004 0.05);
        fieldValues
        (
    volScalarFieldValue alpha.Fe 1.0
    volScalarFieldValue alpha.Ni 0
    volScalarFieldValue alpha.Mn 0
    volScalarFieldValue alpha.air 0.0
        );
    }

/*
cylinderToCell
{
p1 	 (-1 	 0.0005 	 0.0);
p2 	 (51 	 0.0005 	 0.0);
radius 5e-4;
fieldValues
(
            volScalarFieldValue alpha.phase1 1
);
}

cylinderToCell
{
p1 	 (-1 	 0.0005 	 -1e-3);
p2 	 (51 	 0.0005 	 -1e-3);
radius 5e-4;
fieldValues
(
            volScalarFieldValue alpha.phase1 1
);
}
cylinderToCell
{
p1 	 (-1 	 0.0005 	 1e-3);
p2 	 (51 	 0.0005 	 1e-3);
radius 5e-4;
fieldValues
(
            volScalarFieldValue alpha.phase1 1
);
}

cylinderToCell
{
p1 	 (-1 	 0.000 	 2.5e-3);
p2 	 (51 	 0.000 	 2.5e-3);
radius 10e-4;
fieldValues
(
            volScalarFieldValue alpha.phase1 1
);
}

cylinderToCell
{
p1 	 (-1 	 0.0005 	 4e-3);
p2 	 (51 	 0.0005 	 4e-3);
radius 5e-4;
fieldValues
(
            volScalarFieldValue alpha.phase1 1
);
}

cylinderToCell
{
p1 	 (-1 	 0.0005 	 6e-3);
p2 	 (51 	 0.0005 	 6e-3);
radius 5e-4;
fieldValues
(
            volScalarFieldValue alpha.phase1 1
);
}
*/

);


// ************************************************************************* //
