/*--------------------------------*- C++ -*----------------------------------*\
  =========                 |
  \\      /  F ield         | OpenFOAM: The Open Source CFD Toolbox
   \\    /   O peration     | Website:  https://openfoam.org
    \\  /    A nd           | Version:  6
     \\/     M anipulation  |
\*---------------------------------------------------------------------------*/
FoamFile
{
    version     2.0;
    format      ascii;
    class       dictionary;
    location    "constant";
    object      transportProperties;
}
// * * * * * * * * * * * * * * * * * * * * * * * * * * * * * * * * * * * * * //

phases (phase1 phase2);

phase1
{
    transportModel  Newtonian;
    nu              5.0e-07;
    rho             8000;
    cp  800;
    cpsolid 600.0;
    kappa  30.0;
	kappasolid  20.0; 
	Tsolidus 1658;
	Tliquidus 1723;
    LatentHeat 2.7e5;
    beta    5.0e-6;
}

phase2
{
    transportModel  Newtonian;
    nu              1.48e-05;
    rho             1.5;
    cp  520;
cpsolid 520;
    kappa  0.016;
kappasolid 0.016;
    Tsolidus    1.0;
    Tliquidus   10.0;
    LatentHeat  1;
    beta    4.0e-5;
}

sigma            1.0;//1.5;
dsigmadT	-0.5e-4;

p0		100000.0;
Tvap 3068.0;
Mm 5.58e-2;
LatentHeatVap 7.45e6;

// ************************************************************************* //
