/*--------------------------------*- C++ -*----------------------------------*\
  =========                 |
  \\      /  F ield         | OpenFOAM: The Open Source CFD Toolbox
   \\    /   O peration     | Website:  https://openfoam.org
    \\  /    A nd           | Version:  6
     \\/     M anipulation  |
\*---------------------------------------------------------------------------*/
FoamFile
{
    version     2.0;
    format      ascii;
    class       dictionary;
    location    "constant";
    object      PhaseFieldProperties;
}
// * * * * * * * * * * * * * * * * * * * * * * * * * * * * * * * * * * * * * //

N_sources	1;

laser.0{
bg 0.0;//20
lg 1e-3;
velocity 0.0;
Q 2000.0;
wavelength 1.064e-6;
radius 0.0005;
V_incident (0 1 1);//(0 1 0);//NORMALISED IN CODE
}

e_num_density	5.83e29;
elec_resistivity	1.0e-6;


// Use local search: defaults to yes
//useLocalSearch yes;

// Print extra debug information: defaults to no
debug no;

Radius_Flavour	2.0;
