/*--------------------------------*- C++ -*----------------------------------*\
  =========                 |
  \\      /  F ield         | OpenFOAM: The Open Source CFD Toolbox
   \\    /   O peration     | Website:  https://openfoam.org
    \\  /    A nd           | Version:  10
     \\/     M anipulation  |
\*---------------------------------------------------------------------------*/
FoamFile
{
    format      ascii;
    class       dictionary;
    location    "system";
    object      fvSchemes;
}
// * * * * * * * * * * * * * * * * * * * * * * * * * * * * * * * * * * * * * //

ddtSchemes
{
    default         Euler;
}

gradSchemes
{
    default         Gauss linear;//fourth;//Gauss linear;
}

divSchemes
{
    div(rhoPhi,U)  Gauss linearUpwind grad(U);//Gauss Gamma 0.5;//Gauss linearUpwind grad(U);
    //div(phi,alpha)  Gauss interfaceCompression vanLeer 1;
    //div(((rho*nuEff)*dev2(T(grad(U))))) Gauss linear;
    div(rhoPhi,epsilon1)	Gauss vanLeer01;//Gauss linear;//
    div((interpolate(cp)*rhoPhi),T)   Gauss upwind;
    
    div((PF_visc*dev2(grad(U).T())))	 Gauss linear;
    
    div((PF_visc*grad(U).T()))	Gauss linear;
    div(phi,C)	Gauss linear;
    
   // div(grad(C))	Gauss linear;
   
   //MHD Schemes
   div(((1|eleccond)*grad(H).T()))	Gauss linear;
   div((interpolate(magperm)*phiH),U)  Gauss linear;
   div((interpolate(magperm)*phi),H)   Gauss linear;
    
}

laplacianSchemes
{
    default         Gauss linear corrected;
}

interpolationSchemes
{
    default         linear;
}

snGradSchemes
{
    default         corrected;
}

fluxRequired
{
    default         no;
    U;
    p_rgh;
    C;
    pcorr;
    pH;
}


// ************************************************************************* //
