/*--------------------------------*- C++ -*----------------------------------*\
  =========                 |
  \\      /  F ield         | OpenFOAM: The Open Source CFD Toolbox
   \\    /   O peration     | Website:  https://openfoam.org
    \\  /    A nd           | Version:  10
     \\/     M anipulation  |
\*---------------------------------------------------------------------------*/
FoamFile
{
    format      ascii;
    class       dictionary;
    location    "system";
    object      fvSolution;
}
// * * * * * * * * * * * * * * * * * * * * * * * * * * * * * * * * * * * * * //

solvers
{
    "alpha.metal.*"
    {
        nAlphaCorr      2;
        nAlphaSubCycles 1;

        MULESCorr       yes;
        nLimiterIter    5;

        solver          smoothSolver;
        smoother        symGaussSeidel;
        tolerance       1e-8;
        relTol          0;
    }

    "pcorr.*"
    {
        solver          PCG;
        preconditioner  DIC;
        tolerance       1e-5;
        relTol          0;
    }

    p_rgh
    {
    /*
        solver          PCG;
        preconditioner  DIC;
        tolerance       1e-07;
        relTol          0.05;
        */
        
        
 	solver	PCG;
	preconditioner
	{
		preconditioner          GAMG;
		nVcycles	10;
		tolerance	1e-10;
		relTol 		0;
		smoother		DICGaussSeidel;
		nSmoothingSteps	4;
		nPreSweeps	0;
		nPostSweeps	2;
		nFinestSweeps	1;
		cacheAgglomeration	true;
		nCellsInCoarestLevel	10;
		agglomerator	faceAreaPair;
		mergeLevels	1;
	}
	tolerance	1.e-12;
	relTol		0;
	minIter		2;
//	maxIter		50;

    }

    p_rghFinal
    {
        $p_rgh;
        relTol          0;
    }

    U
    {
        solver          smoothSolver;
        smoother        symGaussSeidel;
        tolerance       1e-06;
        relTol          0;
    }
    
        H
    {
/*
        solver          smoothSolver;
        smoother        GaussSeidel;//GaussSeidel;//DICGaussSeidel;//
        tolerance       1e-09;
        relTol          0.0;//0.1;
        nSweeps         2;//1;
        maxIter         5000;
*/
        solver          PBiCG;
        preconditioner  DILU;
        tolerance       1e-12;
        minIter         1;
        maxIter         500;//2

    }
    HFinal
    {
        $H;
        tolerance       1e-12;
        relTol          0;
    }

    pH
    {
/*
        $p_rgh;
        tolerance       1e-12;
        relTol          0.0;
        maxIter         5000;
*/
        solver          PCG;
        preconditioner  DIC;
        tolerance       1e-12;
        relTol          0.0;

    }

    pHFinal
    {
        $pH;
        relTol          0;
    }
    
    
        T
    {
/*
        solver          PBiCG;
        preconditioner  DILU;
        tolerance       1e-12;
        minIter         1;
        maxIter         500;//2
*/
        solver          smoothSolver;
        smoother        symGaussSeidel;
        tolerance       1e-9;
        relTol          0.0;
    }

    TFinal
    {
        $T;
    }
    
            C
    {
/*
        solver          PBiCG;
        preconditioner  DILU;
        tolerance       1e-12;
        minIter         1;
        maxIter         500;//2
        */
/*
        solver          smoothSolver;
        smoother        symGaussSeidel;
        tolerance       1e-9;
        relTol          0.0;
        */
        
        solver          GAMG;
	nVcycles	10;
	tolerance	1e-12;
	relTol 		0;
	smoother		DILUGaussSeidel;
	nSmoothingSteps	4;
	nPreSweeps	2;
	nPostSweeps	1;
	nFinestSweeps	1;
	cacheAgglomeration 	true;
	nCellsInCoarestLevel	10;
	agglomerator	faceAreaPair;
	mergeLevels	1;
    }

    CFinal
    {
        $C;
    }
    
}

MELTING
{
    minTempCorrector 1;
    maxTempCorrector 150;
    epsilonTolerance 1e-6;
    epsilonRelaxation 0.95;
    
    damperSwitch true;//false;//true;
}

BPISO
{
    nOuterCorrectors 1;//always 1 I think
    nCorrectors     3;
    nNonOrthogonalCorrectors 1;
    pRefCell        0;
    pRefValue       0.0;
}

PIMPLE
{
    momentumPredictor   no;
    nOuterCorrectors    1;
    nCorrectors         3;
    nNonOrthogonalCorrectors 0;
    
    pRefCell	0;
    pRefValue	0.0;
}

relaxationFactors
{
	fields
	{
		p_rgh 0.3;
		p_rghFinal 1;
	}
	equations
	{
		"(U|C)"	0.7;
		"(U|C)Final"	1;

	}
}


// ************************************************************************* //
