/*--------------------------------*- C++ -*----------------------------------*\
| =========                 |                                                 |
| \\      /  F ield         | OpenFOAM: The Open Source CFD Toolbox           |
|  \\    /   O peration     | Version:  3.0.1                                 |
|   \\  /    A nd           | Web:      www.OpenFOAM.org                      |
|    \\/     M anipulation  |                                                 |
\*---------------------------------------------------------------------------*/
FoamFile
{
    version     2.0;
    format      ascii;
    class       dictionary;
    location    "system";
    object      setFieldsDict;
}
// * * * * * * * * * * * * * * * * * * * * * * * * * * * * * * * * * * * * * //

defaultFieldValues
(
    volScalarFieldValue alpha.metal 0
    volScalarFieldValue C 1.0	//-1
);

regions
(



/*

cylinderToCell
{
p1 	 (-1 	 0.0005 	 0.0005);
p2 	 (51 	 0.0005 	 0.0005);
radius 2.6e-4;
fieldValues
(
    volScalarFieldValue C 0.0
);
}
*/
cylinderToCell
{
p1 	 (-1 	 0.0005 	 0.0005);
p2 	 (51 	 0.0005 	 0.0005);
radius 2.5e-4;
fieldValues
(
    volScalarFieldValue C -1.0
);
}



);


// ************************************************************************* //
