/*--------------------------------*- C++ -*----------------------------------*\
  =========                 |
  \\      /  F ield         | OpenFOAM: The Open Source CFD Toolbox
   \\    /   O peration     | Website:  https://openfoam.org
    \\  /    A nd           | Version:  6
     \\/     M anipulation  |
\*---------------------------------------------------------------------------*/
FoamFile
{
    version     2.0;
    format      ascii;
    class       polyBoundaryMesh;
    location    "constant/polyMesh";
    object      boundary;
}
// * * * * * * * * * * * * * * * * * * * * * * * * * * * * * * * * * * * * * //

8
(
    lowerWall
    {
        type            wall;
        inGroups        1(wall);
        nFaces          0;
        startFace       19000;
    }
    atmosphere
    {
        type            patch;
        nFaces          80;
        startFace       19000;
    }
    rightWall
    {
        type            empty;
        inGroups        1(empty);
        nFaces          9600;
        startFace       19080;
    }
    leftWall
    {
        type            empty;
        inGroups        1(empty);
        nFaces          9600;
        startFace       28680;
    }
    frontAndBack
    {
        type            patch;
        nFaces          0;
        startFace       38280;
    }
    procBoundary2to0
    {
        type            processor;
        inGroups        1(processor);
        nFaces          120;
        startFace       38280;
        matchTolerance  0.0001;
        transform       unknown;
        myProcNo        2;
        neighbProcNo    0;
    }
    procBoundary2to3
    {
        type            processor;
        inGroups        1(processor);
        nFaces          80;
        startFace       38400;
        matchTolerance  0.0001;
        transform       unknown;
        myProcNo        2;
        neighbProcNo    3;
    }
    procBoundary2to4
    {
        type            processor;
        inGroups        1(processor);
        nFaces          120;
        startFace       38480;
        matchTolerance  0.0001;
        transform       unknown;
        myProcNo        2;
        neighbProcNo    4;
    }
)

// ************************************************************************* //
